326
peptide_to_xyz
N -10.671 8.676 5.103
H -12.237 10.542 2.784
H -12.013 10.885 4.515
H -12.95 9.462 4.004
H -11.524 8.067 5.32
H -10.604 9.465 5.822
H -9.786 8.076 5.148
C -10.806 9.244 3.77
C -9.622 10.133 3.376
O -8.749 10.266 4.162
C -12.096 10.096 3.768
H -10.907 8.438 3.043
N -9.572 10.736 2.197
C -8.493 11.596 1.733
C -8.728 12.143 0.323
O -9.723 11.827 -0.231
C -7.188 10.713 1.704
C -5.964 11.572 1.315
C -4.716 10.676 1.23
N -3.542 11.488 0.955
C -2.381 10.958 0.788
N -2.178 9.544 0.852
N -1.261 11.793 0.531
H -10.322 10.664 1.438
H -8.36 12.424 2.431
H -7.024 10.282 2.692
H -7.313 9.914 0.973
H -6.142 12.039 0.346
H -5.807 12.343 2.068
H -4.58 10.155 2.178
H -4.847 9.948 0.43
H -3.646 12.55 0.889
H -3.006 8.893 1.044
H -1.2 9.137 0.709
H -1.386 12.854 0.477
H -0.293 11.361 0.391
N -7.851 12.945 -0.264
C -7.986 13.514 -1.597
C -6.802 14.402 -1.991
O -5.929 14.534 -1.205
C -9.27 14.416 -1.551
C -10.532 13.64 -1.238
O -11.312 14.058 -0.374
N -10.854 12.478 -1.951
H -6.931 13.273 0.173
H -8.116 12.718 -2.33
H -9.131 15.176 -0.783
H -9.391 14.895 -2.522
H -10.205 12.13 -2.728
H -11.749 11.939 -1.72
N -6.752 15.005 -3.169
C -5.673 15.865 -3.632
C -5.908 16.413 -5.043
O -6.904 16.096 -5.598
C -4.411 14.886 -3.62
C -3.096 15.5 -4.094
O -2.047 14.846 -3.984
O -3.05 16.757 -4.689
H -7.503 14.933 -3.929
H -5.519 16.685 -2.932
H -4.269 14.536 -2.596
H -4.638 14.038 -4.266
N -5.031 17.213 -5.631
C -5.167 17.784 -6.963
C -3.982 18.67 -7.358
O -3.108 18.803 -6.572
C -6.457 18.635 -6.989
S -6.655 19.37 -8.635
H -4.111 17.542 -5.194
H -5.261 16.974 -7.687
H -7.316 18.002 -6.766
H -6.385 19.427 -6.242
H -5.598 20.147 -8.909
N -3.932 19.275 -8.536
C -2.853 20.134 -8.999
C -3.089 20.682 -10.41
O -4.084 20.367 -10.963
C -1.577 19.265 -9.05
C -0.405 20.144 -9.515
C 0.839 19.425 -9.886
O 1.702 19.91 -10.627
N 0.96 18.01 -9.259
H -4.683 19.203 -9.295
H -2.711 20.959 -8.302
H -1.364 18.866 -8.059
H -1.719 18.443 -9.751
H -0.737 20.708 -10.387
H -0.164 20.833 -8.706
H 0.184 17.639 -8.623
H 1.82 17.407 -9.462
O -0.288 23.071 -11.939
C -3.69 22.846 -12.443
C -3.732 24.037 -11.477
C -5.085 24.676 -11.593
O -5.434 25.559 -10.803
O -5.961 24.254 -12.586
H -1.291 21.809 -10.561
H -2.392 21.227 -13.039
H -3.796 23.216 -13.463
H -4.517 22.175 -12.211
H -3.571 23.691 -10.455
H -2.958 24.757 -11.742
N -2.211 21.483 -10.996
C -2.347 22.053 -12.329
C -1.163 22.94 -12.724
N -1.113 23.543 -13.903
C -0.033 24.402 -14.366
C -0.269 24.951 -15.777
O -1.265 24.637 -16.329
H -1.864 23.473 -14.661
H 0.064 25.242 -13.678
H 0.893 23.826 -14.369
N 0.608 25.751 -16.363
C 0.472 26.322 -17.696
C 1.657 27.208 -18.09
O 2.533 27.339 -17.307
C -0.725 27.305 -17.926
C -1.874 26.775 -18.736
N -2.873 27.537 -19.168
C -2.06 25.473 -19.172
C -3.693 26.757 -19.865
N -3.195 25.524 -19.858
H 1.53 26.078 -15.927
H 0.395 25.507 -18.415
H -1.111 27.59 -16.948
H -0.337 28.186 -18.436
H -2.993 28.584 -18.987
H -1.421 24.607 -18.993
H -4.614 27.072 -20.356
N 1.707 27.813 -19.268
C 2.787 28.671 -19.733
C 2.551 29.221 -21.143
O 1.554 28.906 -21.696
C 4.094 27.826 -19.726
C 4.353 27.274 -18.309
C 5.288 28.7 -20.158
C 5.633 26.418 -18.304
H 0.955 27.743 -20.027
H 2.9 29.505 -19.041
H 3.987 26.994 -20.422
H 4.472 28.106 -17.614
H 3.506 26.661 -18.0
H 6.199 28.102 -20.15
H 5.397 29.535 -19.465
H 5.113 29.083 -21.164
H 5.809 26.032 -17.301
H 6.482 27.029 -18.612
H 5.516 25.586 -18.998
N 3.429 30.02 -21.73
C 3.292 30.591 -23.062
C 4.477 31.477 -23.457
O 5.353 31.607 -22.674
C 2.026 31.49 -23.041
C 0.766 30.693 -22.633
C -0.435 31.652 -22.574
C 0.472 29.574 -23.651
H 4.35 30.346 -21.294
H 3.167 29.793 -23.794
H 2.179 32.299 -22.328
H 1.873 31.908 -24.037
H 0.924 30.252 -21.648
H -1.328 31.098 -22.286
H -0.588 32.104 -23.553
H -0.241 32.433 -21.84
H -0.419 29.027 -23.341
H 1.319 28.891 -23.696
H 0.305 30.012 -24.635
N 4.527 32.081 -24.635
C 5.607 32.939 -25.1
C 5.37 33.49 -26.509
O 4.373 33.177 -27.061
C 6.901 32.078 -25.137
C 8.089 32.947 -25.596
C 9.362 32.09 -25.688
C 10.529 32.968 -26.179
N 11.753 32.159 -26.263
H 3.775 32.012 -25.393
H 5.741 33.767 -24.403
H 7.103 31.684 -24.141
H 6.765 31.252 -25.835
H 7.869 33.371 -26.576
H 8.247 33.751 -24.877
H 9.599 31.684 -24.704
H 9.201 31.272 -26.39
H 10.292 33.372 -27.162
H 10.685 33.789 -25.478
H 12.564 32.77 -26.603
H 11.602 31.353 -26.951
H 11.988 31.763 -25.297
N 6.248 34.289 -27.097
C 6.112 34.861 -28.428
C 7.297 35.746 -28.824
O 8.173 35.874 -28.041
C 4.875 35.781 -28.488
C 3.623 35.039 -28.956
S 2.242 36.206 -28.959
C 0.734 35.363 -29.5
H 7.171 34.614 -26.661
H 6.001 34.057 -29.157
H 4.692 36.187 -27.495
H 5.078 36.597 -29.183
H 3.778 34.65 -29.962
H 3.407 34.215 -28.276
H -0.096 36.069 -29.5
H 0.513 34.542 -28.818
H 0.879 34.971 -30.506
N 7.347 36.351 -30.002
C 8.428 37.208 -30.466
C 8.289 37.599 -31.941
O 8.067 36.738 -32.72
C 9.759 36.388 -30.262
C 10.835 37.146 -29.485
C 12.155 36.719 -29.567
C 10.518 38.238 -28.682
C 13.153 37.383 -28.862
C 11.513 38.905 -27.976
C 12.833 38.477 -28.065
H 6.594 36.283 -30.759
H 8.461 38.11 -29.856
H 9.52 35.475 -29.716
H 10.159 36.132 -31.242
H 12.41 35.86 -30.188
H 9.484 38.575 -28.608
H 14.187 37.046 -28.934
H 11.259 39.762 -27.352
H 13.614 38.998 -27.513
N 8.413 38.857 -32.337
C 8.297 39.325 -33.711
C 9.48 38.904 -34.588
O 10.338 38.266 -34.084
H 7.374 38.939 -34.145
C 8.279 40.853 -33.496
C 9.409 40.98 -32.496
C 8.948 39.894 -31.477
H 8.489 41.396 -34.417
H 7.33 41.193 -33.081
H 10.376 40.742 -32.939
H 9.448 41.972 -32.047
H 9.789 39.522 -30.891
H 8.182 40.283 -30.806
N 9.547 39.239 -35.867
C 10.627 38.887 -36.778
C 10.413 39.424 -38.196
O 9.431 40.048 -38.406
C 10.661 37.342 -36.776
O 9.415 36.871 -37.267
H 8.812 39.814 -36.391
H 11.569 39.269 -36.386
H 11.468 36.989 -37.418
H 10.818 36.977 -35.761
H 8.641 37.216 -36.647
N 11.293 39.201 -39.161
C 11.178 39.67 -40.534
C 12.361 39.248 -41.411
O 13.219 38.609 -40.907
C 11.118 41.195 -40.421
O 10.029 41.578 -39.573
C 10.927 41.808 -41.82
H 12.202 38.647 -39.047
H 10.25 39.299 -40.97
H 12.051 41.561 -39.994
H 9.128 41.224 -39.979
H 10.884 42.894 -41.739
H 9.998 41.439 -42.255
H 11.764 41.524 -42.459
N 12.428 39.584 -42.691
C 13.508 39.231 -43.601
C 13.294 39.769 -45.019
O 12.312 40.393 -45.228
C 13.657 37.708 -43.827
C 14.002 36.927 -42.597
C 13.128 36.141 -41.849
C 15.247 36.82 -42.005
N 13.832 35.606 -40.847
C 15.1 35.992 -40.922
C 16.467 37.377 -42.354
C 16.165 35.663 -40.102
C 17.553 37.054 -41.542
C 17.405 36.211 -40.434
H 11.693 40.16 -43.214
H 14.446 39.625 -43.21
H 12.712 37.328 -44.217
H 14.445 37.549 -44.564
H 12.067 35.991 -42.045
H 13.431 34.96 -40.094
H 16.572 38.034 -43.218
H 16.042 35.008 -39.24
H 18.536 37.464 -41.774
H 18.274 35.979 -39.818
N 14.174 39.546 -45.984
C 14.059 40.015 -47.357
C 15.242 39.593 -48.234
O 16.099 38.953 -47.731
C 13.873 41.581 -47.172
C 13.373 42.401 -48.341
C 13.213 41.885 -49.623
C 13.009 43.717 -48.08
C 12.692 42.688 -50.634
C 12.481 44.517 -49.084
C 12.319 44.001 -50.362
O 11.775 44.8 -51.36
H 15.082 38.991 -45.871
H 13.145 39.606 -47.788
H 13.165 41.724 -46.355
H 14.843 41.987 -46.888
H 13.496 40.854 -49.835
H 13.14 44.124 -47.077
H 12.575 42.287 -51.641
H 12.195 45.547 -48.869
H 12.464 44.895 -52.147
N 15.309 39.929 -49.514
C 16.388 39.576 -50.425
C 16.175 40.114 -51.842
O 15.194 40.739 -52.051
C 16.413 38.006 -50.542
C 17.55 37.516 -51.463
C 16.613 37.366 -49.163
H 14.575 40.505 -50.037
H 17.34 39.934 -50.03
H 15.461 37.67 -50.951
H 17.532 36.428 -51.516
H 18.51 37.844 -51.062
H 17.414 37.931 -52.462
H 16.627 36.281 -49.265
H 15.794 37.657 -48.504
H 17.558 37.703 -48.738
