108
00000001
O       6.485000    1.614000    9.265000
O       6.503000    4.022000    7.044000
O       6.589000    5.724000   13.798000
O       6.495000    8.271000   11.565000
N       8.677000    2.696000   14.019000
N       8.693000    1.051000   12.256000
N       6.520000    1.871000   11.562000
N       6.454000    3.469000   13.420000
N       5.305000    4.830000   12.119000
N       5.156000    3.144000   10.364000
N       5.242000    4.963000    8.756000
N       5.187000    6.665000   10.550000
N       6.508000    7.931000    9.260000
N       6.459000    6.281000    7.458000
N       8.677000    7.014000    6.814000
N       8.683000    8.723000    8.552000
C       9.037000    1.366000   13.643000
H       8.667000    0.688000   14.280000
C       7.360000    0.727000   11.834000
H       6.931000    0.182000   12.541000
H       7.413000    0.172000   11.017000
C       7.356000    3.053000   14.489000
H       7.438000    3.792000   15.143000
H       6.963000    2.277000   14.958000
C       5.722000    2.567000   12.539000
H       5.158000    1.930000   13.065000
C       6.095000    2.161000   10.285000
C       4.852000    3.502000   11.696000
H       3.882000    3.371000   11.894000
C       6.168000    4.776000   13.125000
C       4.588000    3.741000    9.167000
H       4.645000    3.085000    8.427000
H       3.631000    3.931000    9.328000
C       4.659000    6.063000   11.714000
H       3.698000    5.878000   11.563000
H       4.725000    6.711000   12.460000
C       4.821000    6.278000    9.184000
H       3.850000    6.433000    9.000000
C       6.138000    5.002000    7.700000
C       5.743000    7.207000    8.292000
H       5.189000    7.830000    7.740000
C       6.135000    7.665000   10.540000
C       7.350000    6.644000    6.385000
H       6.955000    7.403000    5.888000
H       7.421000    5.881000    5.759000
C       7.331000    9.083000    8.945000
H       7.372000    9.674000    9.739000
H       6.904000    9.590000    8.210000
C       9.012000    8.381000    7.215000
H       8.648000    9.050000    6.567000
O      13.089000    1.614000    9.265000
O      13.072000    4.022000    7.044000
O      12.986000    5.724000   13.798000
O      13.079000    8.271000   11.565000
N      10.897000    2.696000   14.019000
N      10.881000    1.051000   12.256000
N      13.054000    1.871000   11.562000
N      13.121000    3.469000   13.420000
N      14.270000    4.830000   12.119000
N      14.418000    3.144000   10.364000
N      14.332000    4.963000    8.756000
N      14.387000    6.665000   10.550000
N      13.066000    7.931000    9.260000
N      13.115000    6.281000    7.458000
N      10.897000    7.014000    6.814000
N      10.891000    8.723000    8.552000
C      10.537000    1.366000   13.643000
H      10.907000    0.688000   14.280000
C      12.214000    0.727000   11.834000
H      12.643000    0.182000   12.541000
H      12.161000    0.172000   11.017000
C      12.218000    3.053000   14.489000
H      12.136000    3.792000   15.143000
H      12.612000    2.277000   14.958000
C      13.853000    2.567000   12.539000
H      14.416000    1.930000   13.065000
C      13.479000    2.161000   10.285000
C      14.722000    3.502000   11.696000
H      15.693000    3.371000   11.894000
C      13.406000    4.776000   13.125000
C      14.986000    3.741000    9.167000
H      14.929000    3.085000    8.427000
H      15.943000    3.931000    9.328000
C      14.916000    6.063000   11.714000
H      15.877000    5.878000   11.563000
H      14.849000    6.711000   12.460000
C      14.753000    6.278000    9.184000
H      15.724000    6.433000    9.000000
C      13.436000    5.002000    7.700000
C      13.831000    7.207000    8.292000
H      14.385000    7.830000    7.740000
C      13.440000    7.665000   10.540000
C      12.224000    6.644000    6.385000
H      12.619000    7.403000    5.888000
H      12.154000    5.881000    5.759000
C      12.244000    9.083000    8.945000
H      12.203000    9.674000    9.739000
H      12.670000    9.590000    8.210000
C      10.562000    8.381000    7.215000
H      10.926000    9.050000    6.567000
O       9.787000    0.450000   10.315000
O       9.787000    5.130000    6.113000
O       9.787000    4.517000   14.944000
O       9.787000    9.497000   10.415000
C       9.787000    0.808000   11.484000
C       9.787000    3.439000   14.403000
C       9.787000    6.284000    6.550000
C       9.787000    9.025000    9.293000
